*SPEF "ieee 1481-1999"
*DESIGN "pes_decoder"
*DATE "11:11:11 Fri 11 11, 1111"
*VENDOR "OpenRCX"
*PROGRAM "Parallel Extraction"
*VERSION "1.0"
*DESIGN_FLOW "NAME_SCOPE LOCAL" "PIN_CAP NONE"
*DIVIDER /
*DELIMITER :
*BUS_DELIMITER []
*T_UNIT 1 NS
*C_UNIT 1 PF
*R_UNIT 1 OHM
*L_UNIT 1 HENRY

*NAME_MAP
*3 clk
*4 in[0]
*5 in[1]
*6 in[2]
*7 out[0]
*8 out[1]
*9 out[2]
*10 out[3]
*11 out[4]
*12 out[5]
*13 out[6]
*14 out[7]
*15 clk_sky130_fd_sc_hd__and4b_2_B_X
*16 clk_sky130_fd_sc_hd__and4b_2_C_X
*17 clk_sky130_fd_sc_hd__and4b_2_D_X
*18 clknet_0_clk
*19 clknet_1_0__leaf_clk
*20 clknet_1_1__leaf_clk
*21 net1
*22 net10
*23 net11
*24 net2
*25 net3
*26 net4
*27 net5
*28 net6
*29 net7
*30 net8
*31 net9
*32 out_sky130_fd_sc_hd__buf_1_X_3_A
*33 out_sky130_fd_sc_hd__buf_1_X_5_A
*34 out_sky130_fd_sc_hd__buf_1_X_6_A
*35 out_sky130_fd_sc_hd__buf_1_X_A
*36 FILLER_0_0_109
*37 FILLER_0_0_113
*38 FILLER_0_0_125
*39 FILLER_0_0_132
*40 FILLER_0_0_141
*41 FILLER_0_0_153
*42 FILLER_0_0_165
*43 FILLER_0_0_169
*44 FILLER_0_0_181
*45 FILLER_0_0_193
*46 FILLER_0_0_197
*47 FILLER_0_0_209
*48 FILLER_0_0_21
*49 FILLER_0_0_221
*50 FILLER_0_0_225
*51 FILLER_0_0_237
*52 FILLER_0_0_249
*53 FILLER_0_0_253
*54 FILLER_0_0_265
*55 FILLER_0_0_27
*56 FILLER_0_0_272
*57 FILLER_0_0_281
*58 FILLER_0_0_29
*59 FILLER_0_0_293
*60 FILLER_0_0_305
*61 FILLER_0_0_309
*62 FILLER_0_0_321
*63 FILLER_0_0_333
*64 FILLER_0_0_337
*65 FILLER_0_0_349
*66 FILLER_0_0_361
*67 FILLER_0_0_365
*68 FILLER_0_0_377
*69 FILLER_0_0_389
*70 FILLER_0_0_393
*71 FILLER_0_0_401
*72 FILLER_0_0_41
*73 FILLER_0_0_53
*74 FILLER_0_0_57
*75 FILLER_0_0_69
*76 FILLER_0_0_81
*77 FILLER_0_0_85
*78 FILLER_0_0_9
*79 FILLER_0_0_97
*80 FILLER_0_10_109
*81 FILLER_0_10_121
*82 FILLER_0_10_133
*83 FILLER_0_10_139
*84 FILLER_0_10_141
*85 FILLER_0_10_15
*86 FILLER_0_10_153
*87 FILLER_0_10_165
*88 FILLER_0_10_177
*89 FILLER_0_10_189
*90 FILLER_0_10_195
*91 FILLER_0_10_197
*92 FILLER_0_10_209
*93 FILLER_0_10_221
*94 FILLER_0_10_233
*95 FILLER_0_10_245
*96 FILLER_0_10_251
*97 FILLER_0_10_253
*98 FILLER_0_10_265
*99 FILLER_0_10_27
*100 FILLER_0_10_277
*101 FILLER_0_10_289
*102 FILLER_0_10_29
*103 FILLER_0_10_3
*104 FILLER_0_10_301
*105 FILLER_0_10_307
*106 FILLER_0_10_309
*107 FILLER_0_10_321
*108 FILLER_0_10_333
*109 FILLER_0_10_345
*110 FILLER_0_10_357
*111 FILLER_0_10_363
*112 FILLER_0_10_365
*113 FILLER_0_10_377
*114 FILLER_0_10_389
*115 FILLER_0_10_401
*116 FILLER_0_10_41
*117 FILLER_0_10_53
*118 FILLER_0_10_65
*119 FILLER_0_10_77
*120 FILLER_0_10_83
*121 FILLER_0_10_85
*122 FILLER_0_10_97
*123 FILLER_0_11_105
*124 FILLER_0_11_111
*125 FILLER_0_11_113
*126 FILLER_0_11_125
*127 FILLER_0_11_137
*128 FILLER_0_11_149
*129 FILLER_0_11_15
*130 FILLER_0_11_161
*131 FILLER_0_11_167
*132 FILLER_0_11_169
*133 FILLER_0_11_181
*134 FILLER_0_11_193
*135 FILLER_0_11_205
*136 FILLER_0_11_217
*137 FILLER_0_11_223
*138 FILLER_0_11_225
*139 FILLER_0_11_237
*140 FILLER_0_11_249
*141 FILLER_0_11_261
*142 FILLER_0_11_27
*143 FILLER_0_11_273
*144 FILLER_0_11_279
*145 FILLER_0_11_281
*146 FILLER_0_11_293
*147 FILLER_0_11_3
*148 FILLER_0_11_305
*149 FILLER_0_11_317
*150 FILLER_0_11_329
*151 FILLER_0_11_335
*152 FILLER_0_11_337
*153 FILLER_0_11_349
*154 FILLER_0_11_361
*155 FILLER_0_11_373
*156 FILLER_0_11_385
*157 FILLER_0_11_39
*158 FILLER_0_11_391
*159 FILLER_0_11_393
*160 FILLER_0_11_405
*161 FILLER_0_11_51
*162 FILLER_0_11_55
*163 FILLER_0_11_57
*164 FILLER_0_11_69
*165 FILLER_0_11_81
*166 FILLER_0_11_93
*167 FILLER_0_12_109
*168 FILLER_0_12_121
*169 FILLER_0_12_133
*170 FILLER_0_12_139
*171 FILLER_0_12_141
*172 FILLER_0_12_15
*173 FILLER_0_12_153
*174 FILLER_0_12_165
*175 FILLER_0_12_177
*176 FILLER_0_12_189
*177 FILLER_0_12_195
*178 FILLER_0_12_197
*179 FILLER_0_12_209
*180 FILLER_0_12_221
*181 FILLER_0_12_233
*182 FILLER_0_12_245
*183 FILLER_0_12_251
*184 FILLER_0_12_253
*185 FILLER_0_12_265
*186 FILLER_0_12_27
*187 FILLER_0_12_277
*188 FILLER_0_12_289
*189 FILLER_0_12_29
*190 FILLER_0_12_3
*191 FILLER_0_12_301
*192 FILLER_0_12_307
*193 FILLER_0_12_309
*194 FILLER_0_12_321
*195 FILLER_0_12_333
*196 FILLER_0_12_345
*197 FILLER_0_12_357
*198 FILLER_0_12_363
*199 FILLER_0_12_365
*200 FILLER_0_12_377
*201 FILLER_0_12_389
*202 FILLER_0_12_401
*203 FILLER_0_12_41
*204 FILLER_0_12_53
*205 FILLER_0_12_65
*206 FILLER_0_12_77
*207 FILLER_0_12_83
*208 FILLER_0_12_85
*209 FILLER_0_12_97
*210 FILLER_0_13_105
*211 FILLER_0_13_111
*212 FILLER_0_13_113
*213 FILLER_0_13_125
*214 FILLER_0_13_137
*215 FILLER_0_13_149
*216 FILLER_0_13_15
*217 FILLER_0_13_161
*218 FILLER_0_13_167
*219 FILLER_0_13_169
*220 FILLER_0_13_181
*221 FILLER_0_13_193
*222 FILLER_0_13_205
*223 FILLER_0_13_217
*224 FILLER_0_13_223
*225 FILLER_0_13_225
*226 FILLER_0_13_237
*227 FILLER_0_13_249
*228 FILLER_0_13_261
*229 FILLER_0_13_27
*230 FILLER_0_13_273
*231 FILLER_0_13_279
*232 FILLER_0_13_281
*233 FILLER_0_13_293
*234 FILLER_0_13_3
*235 FILLER_0_13_305
*236 FILLER_0_13_317
*237 FILLER_0_13_329
*238 FILLER_0_13_335
*239 FILLER_0_13_337
*240 FILLER_0_13_349
*241 FILLER_0_13_361
*242 FILLER_0_13_373
*243 FILLER_0_13_385
*244 FILLER_0_13_39
*245 FILLER_0_13_391
*246 FILLER_0_13_393
*247 FILLER_0_13_405
*248 FILLER_0_13_51
*249 FILLER_0_13_55
*250 FILLER_0_13_57
*251 FILLER_0_13_69
*252 FILLER_0_13_81
*253 FILLER_0_13_93
*254 FILLER_0_14_109
*255 FILLER_0_14_121
*256 FILLER_0_14_133
*257 FILLER_0_14_139
*258 FILLER_0_14_141
*259 FILLER_0_14_15
*260 FILLER_0_14_153
*261 FILLER_0_14_165
*262 FILLER_0_14_177
*263 FILLER_0_14_189
*264 FILLER_0_14_195
*265 FILLER_0_14_197
*266 FILLER_0_14_209
*267 FILLER_0_14_221
*268 FILLER_0_14_233
*269 FILLER_0_14_245
*270 FILLER_0_14_251
*271 FILLER_0_14_253
*272 FILLER_0_14_265
*273 FILLER_0_14_27
*274 FILLER_0_14_277
*275 FILLER_0_14_289
*276 FILLER_0_14_29
*277 FILLER_0_14_3
*278 FILLER_0_14_301
*279 FILLER_0_14_307
*280 FILLER_0_14_309
*281 FILLER_0_14_321
*282 FILLER_0_14_333
*283 FILLER_0_14_345
*284 FILLER_0_14_357
*285 FILLER_0_14_363
*286 FILLER_0_14_365
*287 FILLER_0_14_377
*288 FILLER_0_14_389
*289 FILLER_0_14_401
*290 FILLER_0_14_41
*291 FILLER_0_14_53
*292 FILLER_0_14_65
*293 FILLER_0_14_77
*294 FILLER_0_14_83
*295 FILLER_0_14_85
*296 FILLER_0_14_97
*297 FILLER_0_15_105
*298 FILLER_0_15_111
*299 FILLER_0_15_113
*300 FILLER_0_15_125
*301 FILLER_0_15_137
*302 FILLER_0_15_149
*303 FILLER_0_15_15
*304 FILLER_0_15_161
*305 FILLER_0_15_167
*306 FILLER_0_15_169
*307 FILLER_0_15_181
*308 FILLER_0_15_193
*309 FILLER_0_15_205
*310 FILLER_0_15_217
*311 FILLER_0_15_223
*312 FILLER_0_15_225
*313 FILLER_0_15_237
*314 FILLER_0_15_249
*315 FILLER_0_15_261
*316 FILLER_0_15_27
*317 FILLER_0_15_273
*318 FILLER_0_15_279
*319 FILLER_0_15_281
*320 FILLER_0_15_293
*321 FILLER_0_15_3
*322 FILLER_0_15_305
*323 FILLER_0_15_317
*324 FILLER_0_15_329
*325 FILLER_0_15_335
*326 FILLER_0_15_337
*327 FILLER_0_15_349
*328 FILLER_0_15_361
*329 FILLER_0_15_373
*330 FILLER_0_15_385
*331 FILLER_0_15_39
*332 FILLER_0_15_391
*333 FILLER_0_15_393
*334 FILLER_0_15_405
*335 FILLER_0_15_51
*336 FILLER_0_15_55
*337 FILLER_0_15_57
*338 FILLER_0_15_69
*339 FILLER_0_15_81
*340 FILLER_0_15_93
*341 FILLER_0_16_109
*342 FILLER_0_16_121
*343 FILLER_0_16_133
*344 FILLER_0_16_139
*345 FILLER_0_16_141
*346 FILLER_0_16_15
*347 FILLER_0_16_153
*348 FILLER_0_16_165
*349 FILLER_0_16_177
*350 FILLER_0_16_189
*351 FILLER_0_16_195
*352 FILLER_0_16_197
*353 FILLER_0_16_209
*354 FILLER_0_16_221
*355 FILLER_0_16_233
*356 FILLER_0_16_245
*357 FILLER_0_16_251
*358 FILLER_0_16_253
*359 FILLER_0_16_265
*360 FILLER_0_16_27
*361 FILLER_0_16_277
*362 FILLER_0_16_289
*363 FILLER_0_16_29
*364 FILLER_0_16_3
*365 FILLER_0_16_301
*366 FILLER_0_16_307
*367 FILLER_0_16_309
*368 FILLER_0_16_321
*369 FILLER_0_16_333
*370 FILLER_0_16_345
*371 FILLER_0_16_357
*372 FILLER_0_16_363
*373 FILLER_0_16_365
*374 FILLER_0_16_377
*375 FILLER_0_16_389
*376 FILLER_0_16_401
*377 FILLER_0_16_41
*378 FILLER_0_16_53
*379 FILLER_0_16_65
*380 FILLER_0_16_77
*381 FILLER_0_16_83
*382 FILLER_0_16_85
*383 FILLER_0_16_97
*384 FILLER_0_17_105
*385 FILLER_0_17_111
*386 FILLER_0_17_113
*387 FILLER_0_17_125
*388 FILLER_0_17_137
*389 FILLER_0_17_149
*390 FILLER_0_17_15
*391 FILLER_0_17_161
*392 FILLER_0_17_167
*393 FILLER_0_17_169
*394 FILLER_0_17_181
*395 FILLER_0_17_193
*396 FILLER_0_17_205
*397 FILLER_0_17_217
*398 FILLER_0_17_223
*399 FILLER_0_17_225
*400 FILLER_0_17_237
*401 FILLER_0_17_249
*402 FILLER_0_17_261
*403 FILLER_0_17_27
*404 FILLER_0_17_273
*405 FILLER_0_17_279
*406 FILLER_0_17_281
*407 FILLER_0_17_293
*408 FILLER_0_17_3
*409 FILLER_0_17_305
*410 FILLER_0_17_317
*411 FILLER_0_17_329
*412 FILLER_0_17_335
*413 FILLER_0_17_337
*414 FILLER_0_17_349
*415 FILLER_0_17_361
*416 FILLER_0_17_373
*417 FILLER_0_17_385
*418 FILLER_0_17_39
*419 FILLER_0_17_391
*420 FILLER_0_17_393
*421 FILLER_0_17_405
*422 FILLER_0_17_51
*423 FILLER_0_17_55
*424 FILLER_0_17_57
*425 FILLER_0_17_69
*426 FILLER_0_17_81
*427 FILLER_0_17_93
*428 FILLER_0_18_109
*429 FILLER_0_18_121
*430 FILLER_0_18_133
*431 FILLER_0_18_139
*432 FILLER_0_18_141
*433 FILLER_0_18_15
*434 FILLER_0_18_153
*435 FILLER_0_18_165
*436 FILLER_0_18_177
*437 FILLER_0_18_189
*438 FILLER_0_18_195
*439 FILLER_0_18_197
*440 FILLER_0_18_209
*441 FILLER_0_18_221
*442 FILLER_0_18_233
*443 FILLER_0_18_245
*444 FILLER_0_18_251
*445 FILLER_0_18_253
*446 FILLER_0_18_265
*447 FILLER_0_18_27
*448 FILLER_0_18_277
*449 FILLER_0_18_289
*450 FILLER_0_18_29
*451 FILLER_0_18_3
*452 FILLER_0_18_301
*453 FILLER_0_18_307
*454 FILLER_0_18_309
*455 FILLER_0_18_321
*456 FILLER_0_18_333
*457 FILLER_0_18_345
*458 FILLER_0_18_357
*459 FILLER_0_18_363
*460 FILLER_0_18_365
*461 FILLER_0_18_377
*462 FILLER_0_18_389
*463 FILLER_0_18_401
*464 FILLER_0_18_41
*465 FILLER_0_18_53
*466 FILLER_0_18_65
*467 FILLER_0_18_77
*468 FILLER_0_18_83
*469 FILLER_0_18_85
*470 FILLER_0_18_97
*471 FILLER_0_19_105
*472 FILLER_0_19_111
*473 FILLER_0_19_113
*474 FILLER_0_19_125
*475 FILLER_0_19_137
*476 FILLER_0_19_149
*477 FILLER_0_19_15
*478 FILLER_0_19_161
*479 FILLER_0_19_167
*480 FILLER_0_19_169
*481 FILLER_0_19_181
*482 FILLER_0_19_193
*483 FILLER_0_19_205
*484 FILLER_0_19_217
*485 FILLER_0_19_223
*486 FILLER_0_19_225
*487 FILLER_0_19_237
*488 FILLER_0_19_249
*489 FILLER_0_19_261
*490 FILLER_0_19_27
*491 FILLER_0_19_273
*492 FILLER_0_19_279
*493 FILLER_0_19_281
*494 FILLER_0_19_293
*495 FILLER_0_19_3
*496 FILLER_0_19_305
*497 FILLER_0_19_317
*498 FILLER_0_19_329
*499 FILLER_0_19_335
*500 FILLER_0_19_337
*501 FILLER_0_19_349
*502 FILLER_0_19_361
*503 FILLER_0_19_373
*504 FILLER_0_19_385
*505 FILLER_0_19_39
*506 FILLER_0_19_391
*507 FILLER_0_19_393
*508 FILLER_0_19_401
*509 FILLER_0_19_51
*510 FILLER_0_19_55
*511 FILLER_0_19_57
*512 FILLER_0_19_69
*513 FILLER_0_19_81
*514 FILLER_0_19_93
*515 FILLER_0_1_105
*516 FILLER_0_1_111
*517 FILLER_0_1_113
*518 FILLER_0_1_125
*519 FILLER_0_1_137
*520 FILLER_0_1_149
*521 FILLER_0_1_15
*522 FILLER_0_1_161
*523 FILLER_0_1_167
*524 FILLER_0_1_169
*525 FILLER_0_1_181
*526 FILLER_0_1_193
*527 FILLER_0_1_205
*528 FILLER_0_1_217
*529 FILLER_0_1_223
*530 FILLER_0_1_225
*531 FILLER_0_1_237
*532 FILLER_0_1_249
*533 FILLER_0_1_261
*534 FILLER_0_1_27
*535 FILLER_0_1_273
*536 FILLER_0_1_279
*537 FILLER_0_1_281
*538 FILLER_0_1_293
*539 FILLER_0_1_3
*540 FILLER_0_1_305
*541 FILLER_0_1_317
*542 FILLER_0_1_329
*543 FILLER_0_1_335
*544 FILLER_0_1_337
*545 FILLER_0_1_349
*546 FILLER_0_1_361
*547 FILLER_0_1_373
*548 FILLER_0_1_385
*549 FILLER_0_1_39
*550 FILLER_0_1_391
*551 FILLER_0_1_393
*552 FILLER_0_1_405
*553 FILLER_0_1_51
*554 FILLER_0_1_55
*555 FILLER_0_1_57
*556 FILLER_0_1_69
*557 FILLER_0_1_81
*558 FILLER_0_1_93
*559 FILLER_0_20_109
*560 FILLER_0_20_121
*561 FILLER_0_20_129
*562 FILLER_0_20_135
*563 FILLER_0_20_139
*564 FILLER_0_20_141
*565 FILLER_0_20_15
*566 FILLER_0_20_153
*567 FILLER_0_20_165
*568 FILLER_0_20_177
*569 FILLER_0_20_189
*570 FILLER_0_20_195
*571 FILLER_0_20_197
*572 FILLER_0_20_209
*573 FILLER_0_20_221
*574 FILLER_0_20_233
*575 FILLER_0_20_245
*576 FILLER_0_20_251
*577 FILLER_0_20_253
*578 FILLER_0_20_265
*579 FILLER_0_20_27
*580 FILLER_0_20_277
*581 FILLER_0_20_289
*582 FILLER_0_20_29
*583 FILLER_0_20_3
*584 FILLER_0_20_301
*585 FILLER_0_20_307
*586 FILLER_0_20_309
*587 FILLER_0_20_321
*588 FILLER_0_20_333
*589 FILLER_0_20_345
*590 FILLER_0_20_357
*591 FILLER_0_20_363
*592 FILLER_0_20_365
*593 FILLER_0_20_377
*594 FILLER_0_20_389
*595 FILLER_0_20_401
*596 FILLER_0_20_41
*597 FILLER_0_20_53
*598 FILLER_0_20_65
*599 FILLER_0_20_77
*600 FILLER_0_20_83
*601 FILLER_0_20_85
*602 FILLER_0_20_97
*603 FILLER_0_21_105
*604 FILLER_0_21_111
*605 FILLER_0_21_113
*606 FILLER_0_21_125
*607 FILLER_0_21_137
*608 FILLER_0_21_149
*609 FILLER_0_21_15
*610 FILLER_0_21_161
*611 FILLER_0_21_167
*612 FILLER_0_21_169
*613 FILLER_0_21_181
*614 FILLER_0_21_193
*615 FILLER_0_21_205
*616 FILLER_0_21_217
*617 FILLER_0_21_223
*618 FILLER_0_21_225
*619 FILLER_0_21_237
*620 FILLER_0_21_249
*621 FILLER_0_21_261
*622 FILLER_0_21_265
*623 FILLER_0_21_27
*624 FILLER_0_21_277
*625 FILLER_0_21_281
*626 FILLER_0_21_293
*627 FILLER_0_21_3
*628 FILLER_0_21_305
*629 FILLER_0_21_317
*630 FILLER_0_21_329
*631 FILLER_0_21_335
*632 FILLER_0_21_337
*633 FILLER_0_21_349
*634 FILLER_0_21_361
*635 FILLER_0_21_373
*636 FILLER_0_21_385
*637 FILLER_0_21_39
*638 FILLER_0_21_391
*639 FILLER_0_21_393
*640 FILLER_0_21_405
*641 FILLER_0_21_51
*642 FILLER_0_21_55
*643 FILLER_0_21_57
*644 FILLER_0_21_69
*645 FILLER_0_21_81
*646 FILLER_0_21_93
*647 FILLER_0_22_109
*648 FILLER_0_22_121
*649 FILLER_0_22_133
*650 FILLER_0_22_139
*651 FILLER_0_22_15
*652 FILLER_0_22_151
*653 FILLER_0_22_163
*654 FILLER_0_22_175
*655 FILLER_0_22_187
*656 FILLER_0_22_195
*657 FILLER_0_22_197
*658 FILLER_0_22_209
*659 FILLER_0_22_221
*660 FILLER_0_22_233
*661 FILLER_0_22_245
*662 FILLER_0_22_251
*663 FILLER_0_22_27
*664 FILLER_0_22_276
*665 FILLER_0_22_288
*666 FILLER_0_22_29
*667 FILLER_0_22_3
*668 FILLER_0_22_300
*669 FILLER_0_22_309
*670 FILLER_0_22_321
*671 FILLER_0_22_333
*672 FILLER_0_22_345
*673 FILLER_0_22_357
*674 FILLER_0_22_363
*675 FILLER_0_22_365
*676 FILLER_0_22_377
*677 FILLER_0_22_389
*678 FILLER_0_22_401
*679 FILLER_0_22_41
*680 FILLER_0_22_53
*681 FILLER_0_22_65
*682 FILLER_0_22_77
*683 FILLER_0_22_83
*684 FILLER_0_22_85
*685 FILLER_0_22_97
*686 FILLER_0_23_105
*687 FILLER_0_23_111
*688 FILLER_0_23_113
*689 FILLER_0_23_125
*690 FILLER_0_23_137
*691 FILLER_0_23_149
*692 FILLER_0_23_15
*693 FILLER_0_23_161
*694 FILLER_0_23_167
*695 FILLER_0_23_169
*696 FILLER_0_23_181
*697 FILLER_0_23_193
*698 FILLER_0_23_205
*699 FILLER_0_23_217
*700 FILLER_0_23_223
*701 FILLER_0_23_225
*702 FILLER_0_23_237
*703 FILLER_0_23_249
*704 FILLER_0_23_255
*705 FILLER_0_23_266
*706 FILLER_0_23_27
*707 FILLER_0_23_278
*708 FILLER_0_23_281
*709 FILLER_0_23_293
*710 FILLER_0_23_3
*711 FILLER_0_23_305
*712 FILLER_0_23_317
*713 FILLER_0_23_329
*714 FILLER_0_23_335
*715 FILLER_0_23_337
*716 FILLER_0_23_349
*717 FILLER_0_23_361
*718 FILLER_0_23_373
*719 FILLER_0_23_385
*720 FILLER_0_23_39
*721 FILLER_0_23_391
*722 FILLER_0_23_393
*723 FILLER_0_23_405
*724 FILLER_0_23_51
*725 FILLER_0_23_55
*726 FILLER_0_23_57
*727 FILLER_0_23_69
*728 FILLER_0_23_81
*729 FILLER_0_23_93
*730 FILLER_0_24_109
*731 FILLER_0_24_121
*732 FILLER_0_24_133
*733 FILLER_0_24_139
*734 FILLER_0_24_141
*735 FILLER_0_24_15
*736 FILLER_0_24_153
*737 FILLER_0_24_165
*738 FILLER_0_24_177
*739 FILLER_0_24_189
*740 FILLER_0_24_195
*741 FILLER_0_24_197
*742 FILLER_0_24_209
*743 FILLER_0_24_221
*744 FILLER_0_24_233
*745 FILLER_0_24_245
*746 FILLER_0_24_251
*747 FILLER_0_24_253
*748 FILLER_0_24_265
*749 FILLER_0_24_27
*750 FILLER_0_24_277
*751 FILLER_0_24_289
*752 FILLER_0_24_29
*753 FILLER_0_24_3
*754 FILLER_0_24_301
*755 FILLER_0_24_307
*756 FILLER_0_24_309
*757 FILLER_0_24_321
*758 FILLER_0_24_333
*759 FILLER_0_24_345
*760 FILLER_0_24_357
*761 FILLER_0_24_363
*762 FILLER_0_24_365
*763 FILLER_0_24_377
*764 FILLER_0_24_389
*765 FILLER_0_24_401
*766 FILLER_0_24_41
*767 FILLER_0_24_53
*768 FILLER_0_24_65
*769 FILLER_0_24_77
*770 FILLER_0_24_83
*771 FILLER_0_24_85
*772 FILLER_0_24_97
*773 FILLER_0_25_105
*774 FILLER_0_25_111
*775 FILLER_0_25_113
*776 FILLER_0_25_125
*777 FILLER_0_25_137
*778 FILLER_0_25_149
*779 FILLER_0_25_15
*780 FILLER_0_25_161
*781 FILLER_0_25_167
*782 FILLER_0_25_169
*783 FILLER_0_25_181
*784 FILLER_0_25_193
*785 FILLER_0_25_205
*786 FILLER_0_25_217
*787 FILLER_0_25_223
*788 FILLER_0_25_225
*789 FILLER_0_25_237
*790 FILLER_0_25_249
*791 FILLER_0_25_261
*792 FILLER_0_25_27
*793 FILLER_0_25_273
*794 FILLER_0_25_279
*795 FILLER_0_25_281
*796 FILLER_0_25_293
*797 FILLER_0_25_3
*798 FILLER_0_25_305
*799 FILLER_0_25_317
*800 FILLER_0_25_329
*801 FILLER_0_25_335
*802 FILLER_0_25_337
*803 FILLER_0_25_349
*804 FILLER_0_25_361
*805 FILLER_0_25_373
*806 FILLER_0_25_385
*807 FILLER_0_25_39
*808 FILLER_0_25_391
*809 FILLER_0_25_393
*810 FILLER_0_25_405
*811 FILLER_0_25_51
*812 FILLER_0_25_55
*813 FILLER_0_25_57
*814 FILLER_0_25_69
*815 FILLER_0_25_81
*816 FILLER_0_25_93
*817 FILLER_0_26_109
*818 FILLER_0_26_121
*819 FILLER_0_26_133
*820 FILLER_0_26_139
*821 FILLER_0_26_141
*822 FILLER_0_26_15
*823 FILLER_0_26_153
*824 FILLER_0_26_165
*825 FILLER_0_26_177
*826 FILLER_0_26_189
*827 FILLER_0_26_195
*828 FILLER_0_26_197
*829 FILLER_0_26_209
*830 FILLER_0_26_221
*831 FILLER_0_26_233
*832 FILLER_0_26_245
*833 FILLER_0_26_251
*834 FILLER_0_26_253
*835 FILLER_0_26_265
*836 FILLER_0_26_27
*837 FILLER_0_26_277
*838 FILLER_0_26_289
*839 FILLER_0_26_29
*840 FILLER_0_26_3
*841 FILLER_0_26_301
*842 FILLER_0_26_307
*843 FILLER_0_26_309
*844 FILLER_0_26_321
*845 FILLER_0_26_333
*846 FILLER_0_26_345
*847 FILLER_0_26_357
*848 FILLER_0_26_363
*849 FILLER_0_26_365
*850 FILLER_0_26_377
*851 FILLER_0_26_389
*852 FILLER_0_26_401
*853 FILLER_0_26_41
*854 FILLER_0_26_53
*855 FILLER_0_26_65
*856 FILLER_0_26_77
*857 FILLER_0_26_83
*858 FILLER_0_26_85
*859 FILLER_0_26_97
*860 FILLER_0_27_105
*861 FILLER_0_27_111
*862 FILLER_0_27_113
*863 FILLER_0_27_125
*864 FILLER_0_27_137
*865 FILLER_0_27_149
*866 FILLER_0_27_15
*867 FILLER_0_27_161
*868 FILLER_0_27_167
*869 FILLER_0_27_169
*870 FILLER_0_27_181
*871 FILLER_0_27_193
*872 FILLER_0_27_205
*873 FILLER_0_27_217
*874 FILLER_0_27_223
*875 FILLER_0_27_225
*876 FILLER_0_27_237
*877 FILLER_0_27_249
*878 FILLER_0_27_261
*879 FILLER_0_27_27
*880 FILLER_0_27_273
*881 FILLER_0_27_279
*882 FILLER_0_27_281
*883 FILLER_0_27_293
*884 FILLER_0_27_3
*885 FILLER_0_27_305
*886 FILLER_0_27_317
*887 FILLER_0_27_329
*888 FILLER_0_27_335
*889 FILLER_0_27_337
*890 FILLER_0_27_349
*891 FILLER_0_27_361
*892 FILLER_0_27_373
*893 FILLER_0_27_385
*894 FILLER_0_27_39
*895 FILLER_0_27_391
*896 FILLER_0_27_393
*897 FILLER_0_27_405
*898 FILLER_0_27_51
*899 FILLER_0_27_55
*900 FILLER_0_27_57
*901 FILLER_0_27_69
*902 FILLER_0_27_81
*903 FILLER_0_27_93
*904 FILLER_0_28_109
*905 FILLER_0_28_121
*906 FILLER_0_28_133
*907 FILLER_0_28_139
*908 FILLER_0_28_141
*909 FILLER_0_28_15
*910 FILLER_0_28_153
*911 FILLER_0_28_157
*912 FILLER_0_28_178
*913 FILLER_0_28_190
*914 FILLER_0_28_197
*915 FILLER_0_28_209
*916 FILLER_0_28_213
*917 FILLER_0_28_234
*918 FILLER_0_28_246
*919 FILLER_0_28_253
*920 FILLER_0_28_265
*921 FILLER_0_28_27
*922 FILLER_0_28_277
*923 FILLER_0_28_289
*924 FILLER_0_28_29
*925 FILLER_0_28_3
*926 FILLER_0_28_301
*927 FILLER_0_28_307
*928 FILLER_0_28_309
*929 FILLER_0_28_321
*930 FILLER_0_28_333
*931 FILLER_0_28_345
*932 FILLER_0_28_357
*933 FILLER_0_28_363
*934 FILLER_0_28_365
*935 FILLER_0_28_377
*936 FILLER_0_28_389
*937 FILLER_0_28_401
*938 FILLER_0_28_41
*939 FILLER_0_28_53
*940 FILLER_0_28_65
*941 FILLER_0_28_77
*942 FILLER_0_28_83
*943 FILLER_0_28_85
*944 FILLER_0_28_97
*945 FILLER_0_29_105
*946 FILLER_0_29_111
*947 FILLER_0_29_113
*948 FILLER_0_29_125
*949 FILLER_0_29_137
*950 FILLER_0_29_149
*951 FILLER_0_29_15
*952 FILLER_0_29_161
*953 FILLER_0_29_167
*954 FILLER_0_29_169
*955 FILLER_0_29_181
*956 FILLER_0_29_193
*957 FILLER_0_29_205
*958 FILLER_0_29_217
*959 FILLER_0_29_223
*960 FILLER_0_29_225
*961 FILLER_0_29_237
*962 FILLER_0_29_249
*963 FILLER_0_29_261
*964 FILLER_0_29_27
*965 FILLER_0_29_273
*966 FILLER_0_29_279
*967 FILLER_0_29_281
*968 FILLER_0_29_293
*969 FILLER_0_29_3
*970 FILLER_0_29_305
*971 FILLER_0_29_317
*972 FILLER_0_29_329
*973 FILLER_0_29_335
*974 FILLER_0_29_337
*975 FILLER_0_29_349
*976 FILLER_0_29_361
*977 FILLER_0_29_373
*978 FILLER_0_29_385
*979 FILLER_0_29_39
*980 FILLER_0_29_391
*981 FILLER_0_29_393
*982 FILLER_0_29_405
*983 FILLER_0_29_51
*984 FILLER_0_29_55
*985 FILLER_0_29_57
*986 FILLER_0_29_69
*987 FILLER_0_29_81
*988 FILLER_0_29_93
*989 FILLER_0_2_109
*990 FILLER_0_2_121
*991 FILLER_0_2_133
*992 FILLER_0_2_139
*993 FILLER_0_2_141
*994 FILLER_0_2_15
*995 FILLER_0_2_153
*996 FILLER_0_2_165
*997 FILLER_0_2_177
*998 FILLER_0_2_189
*999 FILLER_0_2_195
*1000 FILLER_0_2_197
*1001 FILLER_0_2_209
*1002 FILLER_0_2_221
*1003 FILLER_0_2_233
*1004 FILLER_0_2_245
*1005 FILLER_0_2_251
*1006 FILLER_0_2_253
*1007 FILLER_0_2_265
*1008 FILLER_0_2_27
*1009 FILLER_0_2_277
*1010 FILLER_0_2_289
*1011 FILLER_0_2_29
*1012 FILLER_0_2_3
*1013 FILLER_0_2_301
*1014 FILLER_0_2_307
*1015 FILLER_0_2_309
*1016 FILLER_0_2_321
*1017 FILLER_0_2_333
*1018 FILLER_0_2_345
*1019 FILLER_0_2_357
*1020 FILLER_0_2_363
*1021 FILLER_0_2_365
*1022 FILLER_0_2_377
*1023 FILLER_0_2_389
*1024 FILLER_0_2_401
*1025 FILLER_0_2_41
*1026 FILLER_0_2_53
*1027 FILLER_0_2_65
*1028 FILLER_0_2_77
*1029 FILLER_0_2_83
*1030 FILLER_0_2_85
*1031 FILLER_0_2_97
*1032 FILLER_0_30_109
*1033 FILLER_0_30_121
*1034 FILLER_0_30_133
*1035 FILLER_0_30_139
*1036 FILLER_0_30_141
*1037 FILLER_0_30_15
*1038 FILLER_0_30_153
*1039 FILLER_0_30_165
*1040 FILLER_0_30_177
*1041 FILLER_0_30_189
*1042 FILLER_0_30_195
*1043 FILLER_0_30_197
*1044 FILLER_0_30_209
*1045 FILLER_0_30_221
*1046 FILLER_0_30_233
*1047 FILLER_0_30_245
*1048 FILLER_0_30_251
*1049 FILLER_0_30_253
*1050 FILLER_0_30_265
*1051 FILLER_0_30_27
*1052 FILLER_0_30_277
*1053 FILLER_0_30_289
*1054 FILLER_0_30_29
*1055 FILLER_0_30_3
*1056 FILLER_0_30_301
*1057 FILLER_0_30_307
*1058 FILLER_0_30_309
*1059 FILLER_0_30_321
*1060 FILLER_0_30_333
*1061 FILLER_0_30_345
*1062 FILLER_0_30_357
*1063 FILLER_0_30_363
*1064 FILLER_0_30_365
*1065 FILLER_0_30_377
*1066 FILLER_0_30_389
*1067 FILLER_0_30_401
*1068 FILLER_0_30_41
*1069 FILLER_0_30_53
*1070 FILLER_0_30_65
*1071 FILLER_0_30_77
*1072 FILLER_0_30_83
*1073 FILLER_0_30_85
*1074 FILLER_0_30_97
*1075 FILLER_0_31_105
*1076 FILLER_0_31_111
*1077 FILLER_0_31_113
*1078 FILLER_0_31_125
*1079 FILLER_0_31_137
*1080 FILLER_0_31_149
*1081 FILLER_0_31_15
*1082 FILLER_0_31_161
*1083 FILLER_0_31_167
*1084 FILLER_0_31_169
*1085 FILLER_0_31_181
*1086 FILLER_0_31_193
*1087 FILLER_0_31_205
*1088 FILLER_0_31_217
*1089 FILLER_0_31_223
*1090 FILLER_0_31_225
*1091 FILLER_0_31_237
*1092 FILLER_0_31_249
*1093 FILLER_0_31_261
*1094 FILLER_0_31_27
*1095 FILLER_0_31_273
*1096 FILLER_0_31_279
*1097 FILLER_0_31_281
*1098 FILLER_0_31_293
*1099 FILLER_0_31_3
*1100 FILLER_0_31_305
*1101 FILLER_0_31_317
*1102 FILLER_0_31_329
*1103 FILLER_0_31_335
*1104 FILLER_0_31_337
*1105 FILLER_0_31_349
*1106 FILLER_0_31_361
*1107 FILLER_0_31_373
*1108 FILLER_0_31_385
*1109 FILLER_0_31_39
*1110 FILLER_0_31_391
*1111 FILLER_0_31_393
*1112 FILLER_0_31_405
*1113 FILLER_0_31_51
*1114 FILLER_0_31_55
*1115 FILLER_0_31_57
*1116 FILLER_0_31_69
*1117 FILLER_0_31_81
*1118 FILLER_0_31_93
*1119 FILLER_0_32_109
*1120 FILLER_0_32_121
*1121 FILLER_0_32_133
*1122 FILLER_0_32_139
*1123 FILLER_0_32_141
*1124 FILLER_0_32_15
*1125 FILLER_0_32_153
*1126 FILLER_0_32_165
*1127 FILLER_0_32_177
*1128 FILLER_0_32_189
*1129 FILLER_0_32_195
*1130 FILLER_0_32_197
*1131 FILLER_0_32_221
*1132 FILLER_0_32_233
*1133 FILLER_0_32_245
*1134 FILLER_0_32_251
*1135 FILLER_0_32_253
*1136 FILLER_0_32_265
*1137 FILLER_0_32_27
*1138 FILLER_0_32_277
*1139 FILLER_0_32_289
*1140 FILLER_0_32_29
*1141 FILLER_0_32_3
*1142 FILLER_0_32_301
*1143 FILLER_0_32_307
*1144 FILLER_0_32_309
*1145 FILLER_0_32_321
*1146 FILLER_0_32_333
*1147 FILLER_0_32_345
*1148 FILLER_0_32_357
*1149 FILLER_0_32_363
*1150 FILLER_0_32_365
*1151 FILLER_0_32_377
*1152 FILLER_0_32_389
*1153 FILLER_0_32_401
*1154 FILLER_0_32_41
*1155 FILLER_0_32_53
*1156 FILLER_0_32_65
*1157 FILLER_0_32_77
*1158 FILLER_0_32_83
*1159 FILLER_0_32_85
*1160 FILLER_0_32_97
*1161 FILLER_0_33_105
*1162 FILLER_0_33_111
*1163 FILLER_0_33_113
*1164 FILLER_0_33_125
*1165 FILLER_0_33_137
*1166 FILLER_0_33_149
*1167 FILLER_0_33_15
*1168 FILLER_0_33_161
*1169 FILLER_0_33_167
*1170 FILLER_0_33_169
*1171 FILLER_0_33_181
*1172 FILLER_0_33_193
*1173 FILLER_0_33_205
*1174 FILLER_0_33_217
*1175 FILLER_0_33_223
*1176 FILLER_0_33_225
*1177 FILLER_0_33_237
*1178 FILLER_0_33_249
*1179 FILLER_0_33_261
*1180 FILLER_0_33_27
*1181 FILLER_0_33_273
*1182 FILLER_0_33_279
*1183 FILLER_0_33_281
*1184 FILLER_0_33_293
*1185 FILLER_0_33_3
*1186 FILLER_0_33_305
*1187 FILLER_0_33_317
*1188 FILLER_0_33_329
*1189 FILLER_0_33_335
*1190 FILLER_0_33_337
*1191 FILLER_0_33_349
*1192 FILLER_0_33_361
*1193 FILLER_0_33_373
*1194 FILLER_0_33_385
*1195 FILLER_0_33_39
*1196 FILLER_0_33_391
*1197 FILLER_0_33_393
*1198 FILLER_0_33_405
*1199 FILLER_0_33_51
*1200 FILLER_0_33_55
*1201 FILLER_0_33_57
*1202 FILLER_0_33_69
*1203 FILLER_0_33_81
*1204 FILLER_0_33_93
*1205 FILLER_0_34_109
*1206 FILLER_0_34_121
*1207 FILLER_0_34_133
*1208 FILLER_0_34_139
*1209 FILLER_0_34_141
*1210 FILLER_0_34_15
*1211 FILLER_0_34_153
*1212 FILLER_0_34_165
*1213 FILLER_0_34_177
*1214 FILLER_0_34_189
*1215 FILLER_0_34_195
*1216 FILLER_0_34_197
*1217 FILLER_0_34_209
*1218 FILLER_0_34_221
*1219 FILLER_0_34_233
*1220 FILLER_0_34_245
*1221 FILLER_0_34_251
*1222 FILLER_0_34_253
*1223 FILLER_0_34_265
*1224 FILLER_0_34_27
*1225 FILLER_0_34_277
*1226 FILLER_0_34_289
*1227 FILLER_0_34_29
*1228 FILLER_0_34_3
*1229 FILLER_0_34_301
*1230 FILLER_0_34_307
*1231 FILLER_0_34_309
*1232 FILLER_0_34_321
*1233 FILLER_0_34_333
*1234 FILLER_0_34_345
*1235 FILLER_0_34_357
*1236 FILLER_0_34_363
*1237 FILLER_0_34_365
*1238 FILLER_0_34_377
*1239 FILLER_0_34_389
*1240 FILLER_0_34_401
*1241 FILLER_0_34_41
*1242 FILLER_0_34_53
*1243 FILLER_0_34_65
*1244 FILLER_0_34_77
*1245 FILLER_0_34_83
*1246 FILLER_0_34_85
*1247 FILLER_0_34_97
*1248 FILLER_0_35_105
*1249 FILLER_0_35_111
*1250 FILLER_0_35_113
*1251 FILLER_0_35_125
*1252 FILLER_0_35_137
*1253 FILLER_0_35_149
*1254 FILLER_0_35_15
*1255 FILLER_0_35_161
*1256 FILLER_0_35_167
*1257 FILLER_0_35_169
*1258 FILLER_0_35_181
*1259 FILLER_0_35_193
*1260 FILLER_0_35_205
*1261 FILLER_0_35_217
*1262 FILLER_0_35_223
*1263 FILLER_0_35_225
*1264 FILLER_0_35_237
*1265 FILLER_0_35_249
*1266 FILLER_0_35_261
*1267 FILLER_0_35_27
*1268 FILLER_0_35_273
*1269 FILLER_0_35_279
*1270 FILLER_0_35_281
*1271 FILLER_0_35_293
*1272 FILLER_0_35_3
*1273 FILLER_0_35_305
*1274 FILLER_0_35_317
*1275 FILLER_0_35_329
*1276 FILLER_0_35_335
*1277 FILLER_0_35_337
*1278 FILLER_0_35_349
*1279 FILLER_0_35_361
*1280 FILLER_0_35_373
*1281 FILLER_0_35_385
*1282 FILLER_0_35_39
*1283 FILLER_0_35_391
*1284 FILLER_0_35_393
*1285 FILLER_0_35_405
*1286 FILLER_0_35_51
*1287 FILLER_0_35_55
*1288 FILLER_0_35_57
*1289 FILLER_0_35_69
*1290 FILLER_0_35_81
*1291 FILLER_0_35_93
*1292 FILLER_0_36_109
*1293 FILLER_0_36_121
*1294 FILLER_0_36_133
*1295 FILLER_0_36_139
*1296 FILLER_0_36_141
*1297 FILLER_0_36_15
*1298 FILLER_0_36_153
*1299 FILLER_0_36_165
*1300 FILLER_0_36_177
*1301 FILLER_0_36_189
*1302 FILLER_0_36_195
*1303 FILLER_0_36_197
*1304 FILLER_0_36_209
*1305 FILLER_0_36_221
*1306 FILLER_0_36_233
*1307 FILLER_0_36_245
*1308 FILLER_0_36_251
*1309 FILLER_0_36_253
*1310 FILLER_0_36_265
*1311 FILLER_0_36_27
*1312 FILLER_0_36_277
*1313 FILLER_0_36_289
*1314 FILLER_0_36_29
*1315 FILLER_0_36_3
*1316 FILLER_0_36_301
*1317 FILLER_0_36_307
*1318 FILLER_0_36_309
*1319 FILLER_0_36_321
*1320 FILLER_0_36_333
*1321 FILLER_0_36_345
*1322 FILLER_0_36_357
*1323 FILLER_0_36_363
*1324 FILLER_0_36_365
*1325 FILLER_0_36_377
*1326 FILLER_0_36_389
*1327 FILLER_0_36_401
*1328 FILLER_0_36_41
*1329 FILLER_0_36_53
*1330 FILLER_0_36_65
*1331 FILLER_0_36_77
*1332 FILLER_0_36_83
*1333 FILLER_0_36_85
*1334 FILLER_0_36_97
*1335 FILLER_0_37_105
*1336 FILLER_0_37_111
*1337 FILLER_0_37_113
*1338 FILLER_0_37_125
*1339 FILLER_0_37_137
*1340 FILLER_0_37_149
*1341 FILLER_0_37_15
*1342 FILLER_0_37_161
*1343 FILLER_0_37_167
*1344 FILLER_0_37_169
*1345 FILLER_0_37_181
*1346 FILLER_0_37_193
*1347 FILLER_0_37_205
*1348 FILLER_0_37_217
*1349 FILLER_0_37_223
*1350 FILLER_0_37_225
*1351 FILLER_0_37_237
*1352 FILLER_0_37_249
*1353 FILLER_0_37_261
*1354 FILLER_0_37_27
*1355 FILLER_0_37_273
*1356 FILLER_0_37_279
*1357 FILLER_0_37_281
*1358 FILLER_0_37_293
*1359 FILLER_0_37_3
*1360 FILLER_0_37_305
*1361 FILLER_0_37_317
*1362 FILLER_0_37_329
*1363 FILLER_0_37_335
*1364 FILLER_0_37_337
*1365 FILLER_0_37_349
*1366 FILLER_0_37_361
*1367 FILLER_0_37_373
*1368 FILLER_0_37_385
*1369 FILLER_0_37_39
*1370 FILLER_0_37_391
*1371 FILLER_0_37_393
*1372 FILLER_0_37_405
*1373 FILLER_0_37_51
*1374 FILLER_0_37_55
*1375 FILLER_0_37_57
*1376 FILLER_0_37_69
*1377 FILLER_0_37_81
*1378 FILLER_0_37_93
*1379 FILLER_0_38_109
*1380 FILLER_0_38_121
*1381 FILLER_0_38_133
*1382 FILLER_0_38_139
*1383 FILLER_0_38_141
*1384 FILLER_0_38_15
*1385 FILLER_0_38_153
*1386 FILLER_0_38_165
*1387 FILLER_0_38_177
*1388 FILLER_0_38_189
*1389 FILLER_0_38_195
*1390 FILLER_0_38_197
*1391 FILLER_0_38_209
*1392 FILLER_0_38_221
*1393 FILLER_0_38_233
*1394 FILLER_0_38_245
*1395 FILLER_0_38_251
*1396 FILLER_0_38_253
*1397 FILLER_0_38_265
*1398 FILLER_0_38_27
*1399 FILLER_0_38_277
*1400 FILLER_0_38_289
*1401 FILLER_0_38_29
*1402 FILLER_0_38_3
*1403 FILLER_0_38_301
*1404 FILLER_0_38_307
*1405 FILLER_0_38_309
*1406 FILLER_0_38_321
*1407 FILLER_0_38_333
*1408 FILLER_0_38_345
*1409 FILLER_0_38_357
*1410 FILLER_0_38_363
*1411 FILLER_0_38_365
*1412 FILLER_0_38_377
*1413 FILLER_0_38_389
*1414 FILLER_0_38_401
*1415 FILLER_0_38_41
*1416 FILLER_0_38_53
*1417 FILLER_0_38_65
*1418 FILLER_0_38_77
*1419 FILLER_0_38_83
*1420 FILLER_0_38_85
*1421 FILLER_0_38_97
*1422 FILLER_0_39_105
*1423 FILLER_0_39_111
*1424 FILLER_0_39_113
*1425 FILLER_0_39_125
*1426 FILLER_0_39_137
*1427 FILLER_0_39_149
*1428 FILLER_0_39_15
*1429 FILLER_0_39_161